
 *******************************************************************************

         NASA-GLENN CHEMICAL EQUILIBRIUM PROGRAM CEA2, MAY 21, 2004
                   BY  BONNIE MCBRIDE AND SANFORD GORDON
      REFS: NASA RP-1311, PART I, 1994 AND NASA RP-1311, PART II, 1996

 *******************************************************************************



 problem o/f=0.98, rocket equilibrium tcest,k=3800
 case=1
 	 p,bar=20.0,
 	 pi/p=200,
 react
 	 fuel=N2H4(L) wt% 100 t=298.15
 	 oxid=O2(L) wt% 100
 output short transport siunits
 	 plot p pip mach aeat cf vis pran pranfz cp gam isp ivac t
 end






              THEORETICAL ROCKET PERFORMANCE ASSUMING EQUILIBRIUM

           COMPOSITION DURING EXPANSION FROM INFINITE AREA COMBUSTOR

 Pin =   290.1 PSIA
 CASE = 1              

             REACTANT                    WT FRACTION      ENERGY      TEMP
                                          (SEE NOTE)     KJ/KG-MOL      K  
 FUEL        N2H4(L)                      1.0000000     50380.000    298.150
 OXIDANT     O2(L)                        1.0000000    -12979.000     90.170

 O/F=    0.98000  %FUEL= 50.505051  R,EQ.RATIO= 1.018932  PHI,EQ.RATIO= 1.018932

                 CHAMBER   THROAT     EXIT
 Pinf/P            1.0000   1.7300   200.00
 P, BAR            20.000   11.561  0.10000
 T, K             3272.92  3107.63  1755.96
 RHO, KG/CU M    1.4433 0 8.8970-1 1.4483-2
 H, KJ/KG          593.26  -142.32 -4825.09
 U, KJ/KG         -792.44 -1441.71 -5515.58
 G, KJ/KG        -42549.5 -41106.3 -27971.7
 S, KJ/(KG)(K)    13.1818  13.1818  13.1818

 M, (1/n)          19.638   19.885   21.145
 (dLV/dLP)t      -1.02893 -1.02431 -1.00014
 (dLV/dLT)p        1.5533   1.4908   1.0052
 Cp, KJ/(KG)(K)    6.9512   6.5869   2.1962
 GAMMAs            1.1338   1.1322   1.2207
 SON VEL,M/SEC     1253.5   1212.9    918.1
 MACH NUMBER        0.000    1.000    3.586

 TRANSPORT PROPERTIES (GASES ONLY)
   CONDUCTIVITY IN UNITS OF MILLIWATTS/(CM)(K)

 VISC,MILLIPOISE   1.0329  0.99645  0.66413

  WITH EQUILIBRIUM REACTIONS

 Cp, KJ/(KG)(K)    6.9512   6.5869   2.1962
 CONDUCTIVITY     15.3294  13.7228   1.9286
 PRANDTL NUMBER    0.4684   0.4783   0.7563

  WITH FROZEN REACTIONS

 Cp, KJ/(KG)(K)    2.3909   2.3744   2.1196
 CONDUCTIVITY      3.6306   3.4340   1.8344
 PRANDTL NUMBER    0.6802   0.6890   0.7674

 PERFORMANCE PARAMETERS

 Ae/At                      1.0000   22.635
 CSTAR, M/SEC               1853.3   1853.3
 CF                         0.6544   1.7762
 Ivac, M/SEC                2284.2   3501.7
 Isp, M/SEC                 1212.9   3291.9


 MOLE FRACTIONS

 *H               0.02225  0.01756  0.00009
 HNO              0.00001  0.00000  0.00000
 HO2              0.00005  0.00003  0.00000
 *H2              0.08501  0.07528  0.01259
 H2O              0.49481  0.51917  0.65371
 H2O2             0.00001  0.00000  0.00000
 *N               0.00001  0.00000  0.00000
 *NO              0.01185  0.00953  0.00003
 NO2              0.00001  0.00000  0.00000
 *N2              0.30357  0.30863  0.33324
 *O               0.00807  0.00612  0.00000
 *OH              0.05607  0.04707  0.00031
 *O2              0.01829  0.01658  0.00003

  * THERMODYNAMIC PROPERTIES FITTED TO 20000.K

 NOTE. WEIGHT FRACTION OF FUEL IN TOTAL FUELS AND OF OXIDANT IN TOTAL OXIDANTS



  
  
  
